{
    "@graph": [
        {
            "@id": "https://www.tib.eu/de/suchen/id/TIBKAT%3A647186373",
            "@type": "bibo:Thesis",
            "P1053": "Online-Ressource (147 S., 15,66 MB)",
            "creator": "Jensen, Sven",
            "identifier": [
                "(firstid)GBV:647186373",
                "(ppn)647186373"
            ],
            "publisher": "Staats- und Universitaetsbibliothek [Host]",
            "subject": [
                "(classificationName=ddc)550",
                "(classificationName=linseach:mapping)geo",
                "(classificationName=ssg)14",
                "(classificationName=ddc-dbn)550"
            ],
            "title": "Grundwasser in Bremen-Nord in drei Dimensionen : Kopplung eines Strukturmodells und eines Str\u00f6mungsmodells",
            "abstract": "Groundwaterflowmodel, MODFLOW, PEST, SEER 3D, water budget, Bremen-Nord, 3D structural model, GOCAD, combined structure and flow model. - The aim of the submitted work is the combination of a structural model and a flow model. Problematic is the demonstration to what extent a 3D structural model can be used as a data basis for a flow model. A new way of connecting the models in conjunction with the focus on the flow model is discussed. Two steps are compulsory for the construction of the model. First, a 1-layer flow model will be constructed which defines the model boundaries. This 1-layer flow model will be utilized to compute the transmissivity after the installation of the sampling well, measuring gauges, drainage systems, and fixed potential margins. The second step focuses on the creation of a 5 layer model which takes the structures of the geology of the Quaternary of the subsurface into account. The work describes how the results of a 3D structural model can be used for the construction of that flow model. The model takes advantage of geographic data and demonstrates technical disadvantages and constraints of the utilized software. One advantage of the more complex model is the possibility of modeling the influence of withdrawal wells and measuring points in respect to their real depth.",
            "contributor": "Technische Informationsbibliothek (TIB)",
            "isPartOf": "(collectioncode)GBV-ODiss",
            "issued": "2011",
            "language": "http://id.loc.gov/vocabulary/iso639-1/de",
            "license": "commercial licence",
            "medium": "rda:termList/RDACarrierType/1018"
        }
    ],
    "@id": "urn:x-arq:DefaultGraphNode",
    "@context": {
        "title": "http://purl.org/dc/elements/1.1/title",
        "isPartOf": "http://purl.org/dc/terms/isPartOf",
        "publisher": "http://purl.org/dc/elements/1.1/publisher",
        "subject": "http://purl.org/dc/elements/1.1/subject",
        "abstract": "http://purl.org/dc/terms/abstract",
        "license": "http://purl.org/dc/terms/license",
        "contributor": "http://purl.org/dc/terms/contributor",
        "medium": {
            "@id": "http://purl.org/dc/terms/medium",
            "@type": "@id"
        },
        "issued": "http://purl.org/dc/terms/issued",
        "language": {
            "@id": "http://purl.org/dc/terms/language",
            "@type": "@id"
        },
        "identifier": "http://purl.org/dc/elements/1.1/identifier",
        "creator": "http://purl.org/dc/elements/1.1/creator",
        "P1053": "http://iflastandards.info/ns/isbd/elements/P1053",
        "umbel": "http://umbel.org/umbel#",
        "rdau": "http://www.rdaregistry.info/Elements/u/#",
        "owl": "http://www.w3.org/2002/07/owl#",
        "dcterms": "http://purl.org/dc/terms/",
        "bibo": "http://purl.org/ontology/bibo/",
        "rdam": "http://www.rdaregistry.info/Elements/m/#",
        "gnd": "http://d-nb.info/gnd/",
        "isbd": "http://iflastandards.info/ns/isbd/elements/",
        "rda": "http://rdvocab.info/",
        "doi": "https://doi.org/"
    }
}