{
    "@graph": [
        {
            "@id": "gnd:4022369-3",
            "sameAs": "Grundwasser"
        },
        {
            "@id": "gnd:4022375-9",
            "sameAs": "Grundwasserleiter"
        },
        {
            "@id": "gnd:4026288-1",
            "sameAs": "Hydraulik"
        },
        {
            "@id": "gnd:4026302-2",
            "sameAs": "Hydrodynamik"
        },
        {
            "@id": "gnd:4026307-1",
            "sameAs": "Hydrogeologie"
        },
        {
            "@id": "gnd:4026312-5",
            "sameAs": "Hydromechanik"
        },
        {
            "@id": "gnd:4121396-8",
            "sameAs": "Grundwasserstrom"
        },
        {
            "@id": "gnd:4162235-2",
            "sameAs": "Inversion (Mathematik)"
        },
        {
            "@id": "gnd:4170297-9",
            "sameAs": "Modellierung"
        },
        {
            "@id": "gnd:4173828-7",
            "sameAs": "Permeabilit\u00e4t"
        },
        {
            "@id": "gnd:4373924-6",
            "sameAs": "Pumpversuch"
        },
        {
            "@id": "gnd:7563851-4",
            "sameAs": "MODFLOW"
        },
        {
            "@id": "https://www.tib.eu/de/suchen/id/TIBKAT%3A663405920",
            "@type": "bibo:Thesis",
            "P1053": "Online-Ressource (PDF-Datei: 134 S., 3.618 KB)",
            "creator": "Hu, Rui",
            "identifier": [
                "(firstid)GBV:663405920",
                "(ppn)663405920"
            ],
            "http://purl.org/dc/elements/1.1/subject": [
                "(classificationName=linseach:mapping)geo",
                "(classificationName=bk, id=106406957)38.86 - Grundwasser",
                "(classificationName=ddc-dbn)550",
                "(classificationName=ddc)610",
                "(classificationName=ddc-dbn)610",
                "(classificationName=ssg)13"
            ],
            "title": "Hydraulic tomography : a new approach coupling hydraulic travel time, attenuation and steady shape inversions for high-spatial resolution aquifer characterization",
            "abstract": "Hydraulic travel time, attenuation, and steady shape inversions are complementary methods for tomographic aquifer characterization. In this work, a coupled procedure is pre-sented that facilitates the determination of the spatial distribution of hydraulic conductivity, diffusivity, and specific storage in heterogeneous groundwater systems. The procedure is first applied to a highly heterogeneous sedimentary aquifer analogue that is implemented as a two- and three-dimensional case study in a numerical flow model. By interpreting the observations from multiple simulated short-term pumping tests, the analogue is successively reconstructed in two and three dimensions. Final results demonstrate the high potential of the coupled procedure for identifying the dominant structural elements and the composition of the sedimentary deposit. Consequently, the coupled inversion scheme is assessed at a field test site. As in the numerical study, the data set for the inversion is derived from a series of short-term pumping tests. The successful two-dimensional high-resolution aquifer reconstruction, as well as the substantial agreement between the individual inversion results, strongly proves the reliability of this coupled inversion scheme for spatial aquifer characterization. As well as the hydraulic tomography approach, numerous traditional methods are also used for the aquifer ...",
            "alternative": [
                "Hydraulische Tomographie$dein neuer Ansatz, zur Verkn\u00fcpfung von hydraulischer Laufzeit-, D\u00e4mfungs- und Steady Shape-Inversion, zur r\u00e4umlich hochaufgel\u00f6sten Aquifercharakterisierung",
                "Hydraulische Tomographie: Ein neuer Ansatz, zur Verkn\u00fcpfung von hydraulischer Laufzeit-, D\u00e4mfungs- und Steady Shape-Inversion, zur r\u00e4umlich hochaufgel\u00f6sten Aquifercharakterisierung"
            ],
            "contributor": "Technische Informationsbibliothek (TIB)",
            "isPartOf": "(collectioncode)GBV-ODiss",
            "issued": "2011",
            "language": "http://id.loc.gov/vocabulary/iso639-1/en",
            "license": "open access",
            "medium": "rda:termList/RDACarrierType/1018",
            "subject": [
                "gnd:4170297-9",
                "gnd:4022375-9",
                "gnd:4026307-1",
                "gnd:7563851-4",
                "gnd:4026312-5",
                "gnd:4162235-2",
                "gnd:4121396-8",
                "gnd:4373924-6",
                "gnd:4026288-1",
                "gnd:4022369-3",
                "gnd:4026302-2",
                "gnd:4173828-7"
            ]
        }
    ],
    "@id": "urn:x-arq:DefaultGraphNode",
    "@context": {
        "sameAs": "http://www.w3.org/2002/07/owl#sameAs",
        "language": {
            "@id": "http://purl.org/dc/terms/language",
            "@type": "@id"
        },
        "subject": {
            "@id": "http://purl.org/dc/terms/subject",
            "@type": "@id"
        },
        "alternative": "http://purl.org/dc/terms/alternative",
        "title": "http://purl.org/dc/elements/1.1/title",
        "license": "http://purl.org/dc/terms/license",
        "P1053": "http://iflastandards.info/ns/isbd/elements/P1053",
        "abstract": "http://purl.org/dc/terms/abstract",
        "contributor": "http://purl.org/dc/terms/contributor",
        "identifier": "http://purl.org/dc/elements/1.1/identifier",
        "isPartOf": "http://purl.org/dc/terms/isPartOf",
        "creator": "http://purl.org/dc/elements/1.1/creator",
        "issued": "http://purl.org/dc/terms/issued",
        "medium": {
            "@id": "http://purl.org/dc/terms/medium",
            "@type": "@id"
        },
        "umbel": "http://umbel.org/umbel#",
        "rdau": "http://www.rdaregistry.info/Elements/u/#",
        "owl": "http://www.w3.org/2002/07/owl#",
        "dcterms": "http://purl.org/dc/terms/",
        "bibo": "http://purl.org/ontology/bibo/",
        "rdam": "http://www.rdaregistry.info/Elements/m/#",
        "gnd": "http://d-nb.info/gnd/",
        "isbd": "http://iflastandards.info/ns/isbd/elements/",
        "rda": "http://rdvocab.info/",
        "doi": "https://doi.org/"
    }
}