{
    "@graph": [
        {
            "@id": "gnd:4022375-9",
            "sameAs": "Grundwasserleiter"
        },
        {
            "@id": "gnd:4026307-1",
            "sameAs": "Hydrogeologie"
        },
        {
            "@id": "gnd:4057956-6",
            "sameAs": "Stratigraphie"
        },
        {
            "@id": "gnd:4121396-8",
            "sameAs": "Grundwasserstrom"
        },
        {
            "@id": "gnd:4170297-9",
            "sameAs": "Modellierung"
        },
        {
            "@id": "gnd:4187713-5",
            "sameAs": "Vergleich"
        },
        {
            "@id": "gnd:4206987-7",
            "sameAs": "Schichtenfolge"
        },
        {
            "@id": "gnd:4293950-1",
            "sameAs": "Bitterfeld"
        },
        {
            "@id": "gnd:7563851-4",
            "sameAs": "MODFLOW"
        },
        {
            "@id": "gnd:7563852-6",
            "sameAs": "gOcad"
        },
        {
            "@id": "https://www.tib.eu/de/suchen/id/TIBKAT%3A833197193",
            "@type": "bibo:Thesis",
            "P1053": "Online-Ressource (XIII, 145 Bl. = 17,07 mb)",
            "contributor": [
                "Schaeben, Helmut",
                "Wycisk, Peter"
            ],
            "creator": "Hubert, Tobias",
            "identifier": [
                "(ppn)833197193",
                "(firstid)GBV:664673481",
                "(doi)10.25673/535"
            ],
            "publisher": "Universitäts- und Landesbibliothek Sachsen-Anhalt",
            "http://purl.org/dc/elements/1.1/subject": [
                "(classificationName=ssg)13",
                "(classificationName=linseach:mapping)geo",
                "(classificationName=ddc-dbn)550"
            ],
            "title": "Methodische Ansätze zur geologischen 3D-Modellierung oberflächennaher Schichtenfolgen und ihre Auswirkung auf die numerische Grundwassermodellierung",
            "abstract": [
                "Die Erstellung und Verwendung von hochauflösenden geologischen 3D-Modellen des oberflächennahen Untergrundes findet zunehmend in den Bereichen der angewandten Geowissenschaften Einzug. Besonders in den weit gefassten Anwendungsgebieten der Hydro- und Umweltgeologie werden geologische 3D-Modelle heute oft in Vorbereitung auf die Modellierung von Grundwasserströmungs- und Transportprozessen erstellt. Im Hinblick auf die modelltechnische Erfassung von oberflächennahen geologischen Lagerungsverhältnissen lassen sich die verfügbaren Konzepte in halbautomatische und weitestgehend automatisierte Verfahren untergliedern. Neben den implementierten Möglichkeiten zur räumlichen Repräsentation von Geo-Objekten und -körpern im 3D-Raum und der verfügbaren Datenbasis, beeinflusst der methodische Ansatz, welcher in den verschiedenen Modellierwerkzeugen für die modelltechnische Umsetzung zur Verfügung steht, die Ergebnisse einer geologischen 3D-Modellierung maßgeblich. Unter Verwendung eines Einheitsdatensatzes aus einem komplex strukturierten Modellstandort werden die Ergebnisse und Auswirkungen, die in Verbindung mit der Anwendung verschiedener methodischer Ansätze zur geologischen 3D-Modellierung zu erwarten sind, vergleichend betrachtet und dargestellt. Hierzu wurden unter verschiedenen Modellierwerkzeugen mehrere geologische 3D-Modelle des wissenschaftlich gut erforschten Modellstandortes Bitterfeld-Süd erstellt und die Ergebnisse gegen ein als Referenz definiertes Modell verglichen. Der Schwerpunkt des Vergleiches lag dabei auf der Analyse von Effekten und Besonderheiten, die mit der Anwendung von unterschiedlichen methodischen Konzepten verbunden sind. Neben Schichtunterkanten, Mächtigkeitsverteilungen, Schichtkörperverbreitungen und Schichtkubaturen wird ebenfalls die strukturelle Heterogenität von Schichtkörpern betrachtet. In einem weiteren Schritt wurden die Ergebnisse aus den verschiedenen geologischen 3D-Modellen in hydrogeologische Modelle überführt. Ein weiterer Vergleich dient dazu, die Auswirkungen der unter den verschiedenen methodischen Ansätzen erreichten Ergebnisse auf die hydrogeologische Modellierung aufzuzeigen. Neben hydraulischen Druckhöhen wird ebenfalls der Verlauf von Bahnlinien vergleichend betrachtet. Die Resultate der geologischen Modellierung offenbaren, dass der verwendete methodische Ansatz, unter dem geologische Strukturen in einem Modellierwerkzeug erfasst werden, einen erheblichen Einfluss auf die Modellergebnisse haben kann. Obwohl alle Modelle nicht im Widerspruch zur verwendeten Datenbasis stehen, unterscheiden sich die Ergebnisse, die unter den verschiedenen betrachteten Konzepten zur modelltechnischen Umsetzung erreicht wurden, zum Teil deutlich. Die Ergebnisse der hydrogeologischen Modellierung zeigen klar, dass bereits geringe strukturelle Unterschiede in einem veränderten Strömungsregime resultieren können. Während hydraulische Druckhöhen von derartigen Geometrieunterschieden eher lokal beeinflusst werden, reagiert der Verlauf von Bahnlinien deutlich sensibler auf strukturelle Abweichungen.",
                "Geological Modelling; 3D geological modelling; 3D geological models; Modelling concepts; Methodological approaches; Methodological concepts; Bitterfeld; Structural heterogenity; Hydrogeological modelling; Groundwater modelling",
                "Geologische Modellierung; Geologische 3D-Modellierung; Geologische 3D-Modelle; Modellierungskonzepte; Methodische Ansätze; Methodische Konzepte; Bitterfeld; Strukturelle Heterogenität; Hydrogeologische Modellierung; Grundwassermodellierung"
            ],
            "dcterms:contributor": "Technische Informationsbibliothek (TIB)",
            "isPartOf": "(collectioncode)GBV-ODiss",
            "issued": "2011",
            "language": "http://id.loc.gov/vocabulary/iso639-1/de",
            "license": "open access",
            "medium": "rda:termList/RDACarrierType/1018",
            "subject": [
                "gnd:4057956-6",
                "gnd:4026307-1",
                "gnd:7563851-4",
                "gnd:4022375-9",
                "gnd:4187713-5",
                "gnd:7563852-6",
                "gnd:4170297-9",
                "gnd:4206987-7",
                "gnd:4121396-8",
                "gnd:4293950-1"
            ],
            "isLike": "doi:10.25673/535"
        }
    ],
    "@id": "urn:x-arq:DefaultGraphNode",
    "@context": {
        "sameAs": "http://www.w3.org/2002/07/owl#sameAs",
        "subject": {
            "@id": "http://purl.org/dc/terms/subject",
            "@type": "@id"
        },
        "abstract": "http://purl.org/dc/terms/abstract",
        "issued": "http://purl.org/dc/terms/issued",
        "medium": {
            "@id": "http://purl.org/dc/terms/medium",
            "@type": "@id"
        },
        "publisher": "http://purl.org/dc/elements/1.1/publisher",
        "identifier": "http://purl.org/dc/elements/1.1/identifier",
        "contributor": "http://purl.org/dc/elements/1.1/contributor",
        "P1053": "http://iflastandards.info/ns/isbd/elements/P1053",
        "creator": "http://purl.org/dc/elements/1.1/creator",
        "isPartOf": "http://purl.org/dc/terms/isPartOf",
        "title": "http://purl.org/dc/elements/1.1/title",
        "license": "http://purl.org/dc/terms/license",
        "isLike": {
            "@id": "http://umbel.org/umbel#isLike",
            "@type": "@id"
        },
        "language": {
            "@id": "http://purl.org/dc/terms/language",
            "@type": "@id"
        },
        "umbel": "http://umbel.org/umbel#",
        "rdau": "http://www.rdaregistry.info/Elements/u/#",
        "owl": "http://www.w3.org/2002/07/owl#",
        "dcterms": "http://purl.org/dc/terms/",
        "bibo": "http://purl.org/ontology/bibo/",
        "rdam": "http://www.rdaregistry.info/Elements/m/#",
        "gnd": "http://d-nb.info/gnd/",
        "isbd": "http://iflastandards.info/ns/isbd/elements/",
        "rda": "http://rdvocab.info/",
        "doi": "https://doi.org/"
    }
}