{
    "@graph": [
        {
            "@id": "gnd:1063380162",
            "sameAs": "Joubert, Gerhard Robert"
        },
        {
            "@id": "gnd:1089261055",
            "sameAs": "Peters, Frans J."
        },
        {
            "@id": "gnd:1155445864",
            "sameAs": "Parallel Computing, Veranstaltung"
        },
        {
            "@id": "gnd:4532701-4",
            "sameAs": "Hochleistungsrechnen"
        },
        {
            "@id": "https://www.tib.eu/de/suchen/id/TIBKAT%3A1025563867",
            "@type": "bibo:Conference",
            "P1053": "xviii, 831 pages",
            "http://purl.org/dc/elements/1.1/contributor": [
                "Danelutto, Marco",
                "Bassini, Sanzio",
                "Dazzi, Patrizio"
            ],
            "description": [
                "25 cm",
                "illustrations"
            ],
            "identifier": [
                "(isbn)1614998426",
                "(ppn)1025563867",
                "(isbn13)9781614998426",
                "(firstid)GBV:1025563867"
            ],
            "publisher": "IOS Press",
            "subject": [
                "(classificationName=linseach:mapping)inf",
                "(classificationName=msc)68M99",
                "(classificationName=msc)68W10",
                "Parallel processing (Electronic computers)",
                "High performance computing",
                "(classificationName=loc)QA76.58",
                "(classificationName=msc)65Y05",
                "(classificationName=msc)68N99",
                "(classificationName=bk, id=181569892)54.25 - Parallele Datenverarbeitung",
                "(classificationName=msc)00B25",
                "(classificationName=msc)*68-06"
            ],
            "title": "Parallel computing is everywhere",
            "abstract": [
                "A Parallel Module for Multiblock Structured Grids in JASMIN and Its ApplicationsPerformance Evaluation and Optimization of MagnetoHydroDynamic Simulation for Planetary Magnetosphere with Xeon Phi KNL; Real Time and Adaptive Systems; Optimizing Communication and Synchronization in CAF Applications; State-Aware Concurrency Throttling; On Architecture for the Future Petascale Computing; Popularity-Based Caching of CMS Datasets; Self-Scheduling for a Heterogeneous Distributed Platform; CalCul: A Python-Based Workspace for High-Performance Parameters-Sweep in Scientific Legacy Codes",
                "Porting of the DBCSR Library for Sparse Matrix-Matrix Multiplications to Intel Xeon Phi SystemsBenchmarking a Hemodynamics Application on Intel Based HPC Systems; Memetic Phase Retrieval and HPC for the Imaging of Matter at Atomic Resolution; Communication Hiding Pipelined Krylov Methods. On Parallel Performance and Numerical Stability of Pipelined Conjugate Gradients; Solving Sparse Linear Systems of Equations Using Fortran Coarrays; Design Towards Modern High Performance Numerical LA Library Enabling Heterogeneity and Flexible Data Formats",
                "Comparing Actor System Topologies and Parameters Using BeCoMeEnergy/Performance Tradeoff; A Bottleneck-Centric Tuning Policy for Optimizing Energy in Parallel Programs; Energy Saving and Thermal Management Opportunities in a Workload-Aware MPI Runtime for a Scientific HPC Computing Node; Optimizing a RBF Interpolation Solver for Energy on Heterogeneous Systems; Implications of Reduced-Precision Computations in HPC: Performance, Energy and Error; Design-Time Analysis for the READEX Tool Suite; A Nature-Inspired, Anytime and Parallel Algorithm for Data Stream Clustering; Accelerators",
                "Title Page; Preface; Conference Organisation; Contents; Invited Talks; Smart Systems, the Fourth Industrial Revolution and New Challenges in Distributed Computing; Main Track; High Performance Scientific Applications; Application of Eisenstat-SSOR Preconditioner to Realistic Stress Analysis Problems by Parallel Cache-Cache Computing; Communication Avoiding Neumann Expansion Preconditioner for LOBPCG Method: Convergence Property of Exact Diagonalization Method for Hubbard Model; Long Range Forces in a Performance Portable Molecular Dynamics Framework",
                "Spectral Acceleration of Parallel Iterative Eigensolvers for Large Scale Scientific ComputingScalable Block-Tridiagonal Eigensolvers in the Context of Electronic Structure Calculations; A Parallel Scheduling Algorithm to Solve Triangular Band Systems on Multicore Machine; Parallel Ray Tracing Algorithm for Numerical Analysis in Radiative Media Physics; A Parallel Simulator of Quench in Superconducting Magnets; SPUX: Scalable Particle Markov Chain Monte Carlo for Uncertainty Quantification in Stochastic Ecological Models"
            ],
            "contributor": [
                "Technische Informationsbibliothek (TIB)",
                {
                    "@id": "gnd:1063380162"
                },
                {
                    "@id": "gnd:1089261055"
                }
            ],
            "creator": "gnd:1155445864",
            "issued": "2018",
            "language": "http://id.loc.gov/vocabulary/iso639-1/en",
            "license": "commercial licence",
            "medium": "rda:termList/RDACarrierType/1044",
            "dcterms:subject": {
                "@id": "gnd:4532701-4"
            },
            "tableOfContents": "http://www.gbv.de/dms/tib-ub-hannover/1025563867.pdf",
            "volume": "volume 32",
            "P30128": "Advances in parallel computing",
            "P60163": "Amsterdam"
        }
    ],
    "@id": "urn:x-arq:DefaultGraphNode",
    "@context": {
        "sameAs": "http://www.w3.org/2002/07/owl#sameAs",
        "subject": "http://purl.org/dc/elements/1.1/subject",
        "contributor": "http://purl.org/dc/terms/contributor",
        "identifier": "http://purl.org/dc/elements/1.1/identifier",
        "P60163": "http://www.rdaregistry.info/Elements/u/#P60163",
        "title": "http://purl.org/dc/elements/1.1/title",
        "P30128": "http://www.rdaregistry.info/Elements/m/#P30128",
        "abstract": "http://purl.org/dc/terms/abstract",
        "creator": {
            "@id": "http://purl.org/dc/terms/creator",
            "@type": "@id"
        },
        "publisher": "http://purl.org/dc/elements/1.1/publisher",
        "P1053": "http://iflastandards.info/ns/isbd/elements/P1053",
        "license": "http://purl.org/dc/terms/license",
        "language": {
            "@id": "http://purl.org/dc/terms/language",
            "@type": "@id"
        },
        "description": "http://purl.org/dc/elements/1.1/description",
        "tableOfContents": "http://purl.org/dc/terms/tableOfContents",
        "medium": {
            "@id": "http://purl.org/dc/terms/medium",
            "@type": "@id"
        },
        "volume": "http://purl.org/ontology/bibo/volume",
        "issued": "http://purl.org/dc/terms/issued",
        "umbel": "http://umbel.org/umbel#",
        "rdau": "http://www.rdaregistry.info/Elements/u/#",
        "owl": "http://www.w3.org/2002/07/owl#",
        "dcterms": "http://purl.org/dc/terms/",
        "bibo": "http://purl.org/ontology/bibo/",
        "rdam": "http://www.rdaregistry.info/Elements/m/#",
        "gnd": "http://d-nb.info/gnd/",
        "isbd": "http://iflastandards.info/ns/isbd/elements/",
        "rda": "http://rdvocab.info/",
        "doi": "https://doi.org/"
    }
}