{
    "@graph": [
        {
            "@id": "gnd:2024315-7",
            "sameAs": "Georg-August-Universität Göttingen"
        },
        {
            "@id": "gnd:4026307-1",
            "sameAs": "Hydrogeologie"
        },
        {
            "@id": "gnd:4034544-0",
            "sameAs": "Languedoc"
        },
        {
            "@id": "gnd:4121396-8",
            "sameAs": "Grundwasserstrom"
        },
        {
            "@id": "gnd:4129942-5",
            "sameAs": "Karst"
        },
        {
            "@id": "gnd:4147301-2",
            "sameAs": "Carbonatgestein"
        },
        {
            "@id": "gnd:4170297-9",
            "sameAs": "Modellierung"
        },
        {
            "@id": "gnd:4192348-0",
            "sameAs": "Karsthydrographie"
        },
        {
            "@id": "gnd:4332474-5",
            "sameAs": "Karstlandschaft"
        },
        {
            "@id": "gnd:4373924-6",
            "sameAs": "Pumpversuch"
        },
        {
            "@id": "gnd:4480861-6",
            "sameAs": "Kluftgrundwasserleiter"
        },
        {
            "@id": "gnd:7563851-4",
            "sameAs": "MODFLOW"
        },
        {
            "@id": "https://www.tib.eu/de/suchen/id/TIBKAT%3A1015774555",
            "@type": "bibo:Thesis",
            "P1053": "1 Online-Ressource (vi, 161 Seiten)",
            "http://purl.org/dc/elements/1.1/creator": "Giese, Markus",
            "description": "Illustrationen, Diagramme, Karten",
            "identifier": [
                "(ppn)1015774555",
                "(firstid)GBV:1015774555"
            ],
            "http://purl.org/dc/elements/1.1/subject": [
                "(classificationName=ddc)550",
                "(classificationName=bk, id=106406957)38.86 - Grundwasser",
                "(classificationName=ddc)910",
                "(classificationName=linseach:mapping)geo"
            ],
            "title": "Identification and quantification of the effects of flow regime and matrix-conduit interaction in the characterization of karst aquifers",
            "abstract": [
                "In addition to alluvial aquifers, karst aquifers are counted among the most important groundwater resources. Besides the high benefit of karstic springs, they also pose risks to the user or people living close to those springs. The highly permeable structures within the low-permeable hard rock, which are the result of chemical solution processes, can result in high contaminant concentration and high flow velocity towards the sources. In addition to the high susceptibility to water quality, karst sources have a high potential for damage caused by flooding in the downstream area of the source...",
                "Karstgrundwasserleiter zählen neben alluvialen Grundwasserleitern zu den wichtigsten Grundwasserressourcen. Neben dem hohen Nutzen von Karstquellen bergen diese jedoch auch Risiken für den Nutzer oder Anrainer. Die hochdurchlässigen Strukturen innerhalb des geringdurchlässigen Festgesteinskörpers, welche die Folge von chemischen Lösungsprozessen sind, führen u.a. dazu, dass (Schad-)Stoffe sehr schnell und in hoher Konzentration zu den Quellen transportiert werden können. Zusätzlich zur hohen Anfälligkeit in Bezug auf die Wasserqualität geht von Karstquellen auch ein hohes Schadenspotential ..."
            ],
            "contributor": "Technische Informationsbibliothek (TIB)",
            "creator": "gnd:2024315-7",
            "isPartOf": "(collectioncode)GBV-ODiss",
            "issued": "2017",
            "language": "http://id.loc.gov/vocabulary/iso639-1/de",
            "license": "open access",
            "medium": "rda:termList/RDACarrierType/1018",
            "subject": [
                "gnd:4373924-6",
                "gnd:4147301-2",
                "gnd:4170297-9",
                "gnd:4121396-8",
                "gnd:4129942-5",
                "gnd:7563851-4",
                "gnd:4034544-0",
                "gnd:4192348-0",
                "gnd:4026307-1",
                "gnd:4480861-6",
                "gnd:4332474-5"
            ],
            "P60163": "Göttingen"
        }
    ],
    "@id": "urn:x-arq:DefaultGraphNode",
    "@context": {
        "sameAs": "http://www.w3.org/2002/07/owl#sameAs",
        "P60163": "http://www.rdaregistry.info/Elements/u/#P60163",
        "isPartOf": "http://purl.org/dc/terms/isPartOf",
        "creator": {
            "@id": "http://purl.org/dc/terms/creator",
            "@type": "@id"
        },
        "medium": {
            "@id": "http://purl.org/dc/terms/medium",
            "@type": "@id"
        },
        "P1053": "http://iflastandards.info/ns/isbd/elements/P1053",
        "subject": {
            "@id": "http://purl.org/dc/terms/subject",
            "@type": "@id"
        },
        "license": "http://purl.org/dc/terms/license",
        "language": {
            "@id": "http://purl.org/dc/terms/language",
            "@type": "@id"
        },
        "identifier": "http://purl.org/dc/elements/1.1/identifier",
        "contributor": "http://purl.org/dc/terms/contributor",
        "abstract": "http://purl.org/dc/terms/abstract",
        "title": "http://purl.org/dc/elements/1.1/title",
        "description": "http://purl.org/dc/elements/1.1/description",
        "issued": "http://purl.org/dc/terms/issued",
        "umbel": "http://umbel.org/umbel#",
        "rdau": "http://www.rdaregistry.info/Elements/u/#",
        "owl": "http://www.w3.org/2002/07/owl#",
        "dcterms": "http://purl.org/dc/terms/",
        "bibo": "http://purl.org/ontology/bibo/",
        "rdam": "http://www.rdaregistry.info/Elements/m/#",
        "gnd": "http://d-nb.info/gnd/",
        "isbd": "http://iflastandards.info/ns/isbd/elements/",
        "rda": "http://rdvocab.info/",
        "doi": "https://doi.org/"
    }
}