{
    "@graph": [
        {
            "@id": "gnd:4022375-9",
            "sameAs": "Grundwasserleiter"
        },
        {
            "@id": "gnd:4026307-1",
            "sameAs": "Hydrogeologie"
        },
        {
            "@id": "gnd:4057956-6",
            "sameAs": "Stratigraphie"
        },
        {
            "@id": "gnd:4121396-8",
            "sameAs": "Grundwasserstrom"
        },
        {
            "@id": "gnd:4170297-9",
            "sameAs": "Modellierung"
        },
        {
            "@id": "gnd:4187713-5",
            "sameAs": "Vergleich"
        },
        {
            "@id": "gnd:4206987-7",
            "sameAs": "Schichtenfolge"
        },
        {
            "@id": "gnd:4293950-1",
            "sameAs": "Bitterfeld"
        },
        {
            "@id": "gnd:7563851-4",
            "sameAs": "MODFLOW"
        },
        {
            "@id": "gnd:7563852-6",
            "sameAs": "gOcad"
        },
        {
            "@id": "https://www.tib.eu/de/suchen/id/TIBKAT%3A833197193",
            "@type": "bibo:Thesis",
            "P1053": "Online-Ressource (XIII, 145 Bl. = 17,07 mb)",
            "contributor": [
                "Schaeben, Helmut",
                "Wycisk, Peter"
            ],
            "creator": "Hubert, Tobias",
            "identifier": [
                "(ppn)833197193",
                "(firstid)GBV:664673481",
                "(doi)10.25673/535"
            ],
            "publisher": "Universit\u00e4ts- und Landesbibliothek Sachsen-Anhalt",
            "http://purl.org/dc/elements/1.1/subject": [
                "(classificationName=ssg)13",
                "(classificationName=linseach:mapping)geo",
                "(classificationName=ddc-dbn)550"
            ],
            "title": "Methodische Ans\u00e4tze zur geologischen 3D-Modellierung oberfl\u00e4chennaher Schichtenfolgen und ihre Auswirkung auf die numerische Grundwassermodellierung",
            "abstract": [
                "Die Erstellung und Verwendung von hochaufl\u00f6senden geologischen 3D-Modellen des oberfl\u00e4chennahen Untergrundes findet zunehmend in den Bereichen der angewandten Geowissenschaften Einzug. Besonders in den weit gefassten Anwendungsgebieten der Hydro- und Umweltgeologie werden geologische 3D-Modelle heute oft in Vorbereitung auf die Modellierung von Grundwasserstr\u00f6mungs- und Transportprozessen erstellt. Im Hinblick auf die modelltechnische Erfassung von oberfl\u00e4chennahen geologischen Lagerungsverh\u00e4ltnissen lassen sich die verf\u00fcgbaren Konzepte in halbautomatische und weitestgehend automatisierte Verfahren untergliedern. Neben den implementierten M\u00f6glichkeiten zur r\u00e4umlichen Repr\u00e4sentation von Geo-Objekten und -k\u00f6rpern im 3D-Raum und der verf\u00fcgbaren Datenbasis, beeinflusst der methodische Ansatz, welcher in den verschiedenen Modellierwerkzeugen f\u00fcr die modelltechnische Umsetzung zur Verf\u00fcgung steht, die Ergebnisse einer geologischen 3D-Modellierung ma\u00dfgeblich. Unter Verwendung eines Einheitsdatensatzes aus einem komplex strukturierten Modellstandort werden die Ergebnisse und Auswirkungen, die in Verbindung mit der Anwendung verschiedener methodischer Ans\u00e4tze zur geologischen 3D-Modellierung zu erwarten sind, vergleichend betrachtet und dargestellt. Hierzu wurden unter verschiedenen Modellierwerkzeugen mehrere geologische 3D-Modelle des wissenschaftlich gut erforschten Modellstandortes Bitterfeld-S\u00fcd erstellt und die Ergebnisse gegen ein als Referenz definiertes Modell verglichen. Der Schwerpunkt des Vergleiches lag dabei auf der Analyse von Effekten und Besonderheiten, die mit der Anwendung von unterschiedlichen methodischen Konzepten verbunden sind. Neben Schichtunterkanten, M\u00e4chtigkeitsverteilungen, Schichtk\u00f6rperverbreitungen und Schichtkubaturen wird ebenfalls die strukturelle Heterogenit\u00e4t von Schichtk\u00f6rpern betrachtet. In einem weiteren Schritt wurden die Ergebnisse aus den verschiedenen geologischen 3D-Modellen in hydrogeologische Modelle \u00fcberf\u00fchrt. Ein weiterer Vergleich dient dazu, die Auswirkungen der unter den verschiedenen methodischen Ans\u00e4tzen erreichten Ergebnisse auf die hydrogeologische Modellierung aufzuzeigen. Neben hydraulischen Druckh\u00f6hen wird ebenfalls der Verlauf von Bahnlinien vergleichend betrachtet. Die Resultate der geologischen Modellierung offenbaren, dass der verwendete methodische Ansatz, unter dem geologische Strukturen in einem Modellierwerkzeug erfasst werden, einen erheblichen Einfluss auf die Modellergebnisse haben kann. Obwohl alle Modelle nicht im Widerspruch zur verwendeten Datenbasis stehen, unterscheiden sich die Ergebnisse, die unter den verschiedenen betrachteten Konzepten zur modelltechnischen Umsetzung erreicht wurden, zum Teil deutlich. Die Ergebnisse der hydrogeologischen Modellierung zeigen klar, dass bereits geringe strukturelle Unterschiede in einem ver\u00e4nderten Str\u00f6mungsregime resultieren k\u00f6nnen. W\u00e4hrend hydraulische Druckh\u00f6hen von derartigen Geometrieunterschieden eher lokal beeinflusst werden, reagiert der Verlauf von Bahnlinien deutlich sensibler auf strukturelle Abweichungen.",
                "Geological Modelling; 3D geological modelling; 3D geological models; Modelling concepts; Methodological approaches; Methodological concepts; Bitterfeld; Structural heterogenity; Hydrogeological modelling; Groundwater modelling",
                "Geologische Modellierung; Geologische 3D-Modellierung; Geologische 3D-Modelle; Modellierungskonzepte; Methodische Ans\u00e4tze; Methodische Konzepte; Bitterfeld; Strukturelle Heterogenit\u00e4t; Hydrogeologische Modellierung; Grundwassermodellierung"
            ],
            "dcterms:contributor": "Technische Informationsbibliothek (TIB)",
            "isPartOf": "(collectioncode)GBV-ODiss",
            "issued": "2011",
            "language": "http://id.loc.gov/vocabulary/iso639-1/de",
            "license": "open access",
            "medium": "rda:termList/RDACarrierType/1018",
            "subject": [
                "gnd:4057956-6",
                "gnd:4026307-1",
                "gnd:7563851-4",
                "gnd:4022375-9",
                "gnd:4187713-5",
                "gnd:7563852-6",
                "gnd:4170297-9",
                "gnd:4206987-7",
                "gnd:4121396-8",
                "gnd:4293950-1"
            ],
            "isLike": "doi:10.25673/535"
        }
    ],
    "@id": "urn:x-arq:DefaultGraphNode",
    "@context": {
        "sameAs": "http://www.w3.org/2002/07/owl#sameAs",
        "subject": {
            "@id": "http://purl.org/dc/terms/subject",
            "@type": "@id"
        },
        "abstract": "http://purl.org/dc/terms/abstract",
        "issued": "http://purl.org/dc/terms/issued",
        "medium": {
            "@id": "http://purl.org/dc/terms/medium",
            "@type": "@id"
        },
        "publisher": "http://purl.org/dc/elements/1.1/publisher",
        "identifier": "http://purl.org/dc/elements/1.1/identifier",
        "contributor": "http://purl.org/dc/elements/1.1/contributor",
        "P1053": "http://iflastandards.info/ns/isbd/elements/P1053",
        "creator": "http://purl.org/dc/elements/1.1/creator",
        "isPartOf": "http://purl.org/dc/terms/isPartOf",
        "title": "http://purl.org/dc/elements/1.1/title",
        "license": "http://purl.org/dc/terms/license",
        "isLike": {
            "@id": "http://umbel.org/umbel#isLike",
            "@type": "@id"
        },
        "language": {
            "@id": "http://purl.org/dc/terms/language",
            "@type": "@id"
        },
        "umbel": "http://umbel.org/umbel#",
        "rdau": "http://www.rdaregistry.info/Elements/u/#",
        "owl": "http://www.w3.org/2002/07/owl#",
        "dcterms": "http://purl.org/dc/terms/",
        "bibo": "http://purl.org/ontology/bibo/",
        "rdam": "http://www.rdaregistry.info/Elements/m/#",
        "gnd": "http://d-nb.info/gnd/",
        "isbd": "http://iflastandards.info/ns/isbd/elements/",
        "rda": "http://rdvocab.info/",
        "doi": "https://doi.org/"
    }
}