{
    "@graph": [
        {
            "@id": "gnd:1081641797",
            "sameAs": "Anderson, Mary P."
        },
        {
            "@id": "gnd:1081642181",
            "sameAs": "Woessner, William W."
        },
        {
            "@id": "gnd:1121017703",
            "sameAs": "Hunt, Randall J."
        },
        {
            "@id": "gnd:4022369-3",
            "sameAs": "Grundwasser"
        },
        {
            "@id": "gnd:4026288-1",
            "sameAs": "Hydraulik"
        },
        {
            "@id": "gnd:4026307-1",
            "sameAs": "Hydrogeologie"
        },
        {
            "@id": "gnd:4121396-8",
            "sameAs": "Grundwasserstrom"
        },
        {
            "@id": "gnd:4170297-9",
            "sameAs": "Modellierung"
        },
        {
            "@id": "gnd:4186957-6",
            "sameAs": "Unsicherheit"
        },
        {
            "@id": "gnd:4198763-9",
            "sameAs": "Kalibrieren (Messtechnik)"
        },
        {
            "@id": "gnd:4338132-7",
            "sameAs": "Numerisches Modell"
        },
        {
            "@id": "gnd:4561767-3",
            "sameAs": "Grundwasserspiegel"
        },
        {
            "@id": "gnd:7563851-4",
            "sameAs": "MODFLOW"
        },
        {
            "@id": "gnd:7569193-0",
            "sameAs": "Finite Element Subsurface Flow and Transport Simulation System"
        },
        {
            "@id": "https://www.tib.eu/de/suchen/id/TIBKAT%3A161751926X",
            "@type": "bibo:Book",
            "P1053": "lxi, 564 Seiten",
            "description": "Illustrationen, Diagramme, Karten",
            "identifier": [
                "(firstid)BSZ:452196655",
                "(isbn13)9780120581030",
                "(ppn)161751926X",
                "(ean)9780120581030"
            ],
            "publisher": "Elsevier, Academic Press",
            "http://purl.org/dc/elements/1.1/subject": [
                "(classificationName=rvk)RB 10354",
                "(classificationName=ssg)13",
                "(classificationName=linseach:mapping)cet",
                "(classificationName=rvk)AR 22140",
                "(classificationName=linseach:mapping)geo",
                "(classificationName=rvk)RB 10345",
                "(classificationName=bk, id=106406957)38.86 - Grundwasser",
                "(classificationName=ddc)551.49011",
                "(classificationName=bk, id=106408283)43.11 - Umwelt\u00fcberwachung"
            ],
            "title": "Applied groundwater modeling : simulation of flow and advective transport",
            "abstract": "This second edition is extensively revised throughout with expanded discussion of modeling fundamentals and coverage of advances in model calibration and uncertainty analysis that are revolutionizing the science of groundwater modeling. The text is intended for undergraduate and graduate level courses in applied groundwater modeling and as a comprehensive reference for environmental consultants and scientists/engineers in industry and governmental agencies.   Explains how to formulate a conceptual model of a groundwater system and translate it into a numerical model  Demonstrates how modeling",
            "contributor": "Technische Informationsbibliothek (TIB)",
            "creator": [
                "gnd:1081641797",
                "gnd:1121017703",
                "gnd:1081642181"
            ],
            "issued": "2015",
            "language": "http://id.loc.gov/vocabulary/iso639-1/en",
            "license": "commercial licence",
            "medium": "rda:termList/RDACarrierType/1044",
            "subject": [
                "gnd:4338132-7",
                "gnd:4026288-1",
                "gnd:7563851-4",
                "gnd:4026307-1",
                "gnd:4170297-9",
                "gnd:4121396-8",
                "gnd:4561767-3",
                "gnd:4022369-3",
                "gnd:4186957-6",
                "gnd:4198763-9",
                "gnd:7569193-0"
            ],
            "tableOfContents": "https://www.gbv.de/dms/tib-ub-hannover/843995882.pdf",
            "P60163": "Amsterdam"
        }
    ],
    "@id": "urn:x-arq:DefaultGraphNode",
    "@context": {
        "subject": {
            "@id": "http://purl.org/dc/terms/subject",
            "@type": "@id"
        },
        "creator": {
            "@id": "http://purl.org/dc/terms/creator",
            "@type": "@id"
        },
        "identifier": "http://purl.org/dc/elements/1.1/identifier",
        "issued": "http://purl.org/dc/terms/issued",
        "publisher": "http://purl.org/dc/elements/1.1/publisher",
        "abstract": "http://purl.org/dc/terms/abstract",
        "tableOfContents": "http://purl.org/dc/terms/tableOfContents",
        "contributor": "http://purl.org/dc/terms/contributor",
        "language": {
            "@id": "http://purl.org/dc/terms/language",
            "@type": "@id"
        },
        "P60163": "http://www.rdaregistry.info/Elements/u/#P60163",
        "title": "http://purl.org/dc/elements/1.1/title",
        "P1053": "http://iflastandards.info/ns/isbd/elements/P1053",
        "license": "http://purl.org/dc/terms/license",
        "medium": {
            "@id": "http://purl.org/dc/terms/medium",
            "@type": "@id"
        },
        "description": "http://purl.org/dc/elements/1.1/description",
        "sameAs": "http://www.w3.org/2002/07/owl#sameAs",
        "umbel": "http://umbel.org/umbel#",
        "rdau": "http://www.rdaregistry.info/Elements/u/#",
        "owl": "http://www.w3.org/2002/07/owl#",
        "dcterms": "http://purl.org/dc/terms/",
        "bibo": "http://purl.org/ontology/bibo/",
        "rdam": "http://www.rdaregistry.info/Elements/m/#",
        "gnd": "http://d-nb.info/gnd/",
        "isbd": "http://iflastandards.info/ns/isbd/elements/",
        "rda": "http://rdvocab.info/",
        "doi": "https://doi.org/"
    }
}